<configuration>
    <input>
        <net-file value="net.net.xml"/>
        <route-files value="active.rou.xml,active.ped.xml"/>
        <gui-settings-file value="view.xml"/>
    </input>
    <time>
        <begin value="0"/>
        <end value="1000"/>
        <step-length value="1.0"/>
    </time>
</configuration>
