<routes>
    <vType id="car" vClass="passenger" length="5.0" width="2.0" maxSpeed="13.89" accel="2.6" decel="4.5" sigma="0.5"/>
    <vType id="ped" vClass="pedestrian" length="0.4" width="0.5" maxSpeed="1.5"/>

    <!-- Named routes -->
    <route id="r_dummy" edges="N_to_C C_to_S"/>
    <route id="r_NS"    edges="N_to_C C_to_S"/>
    <route id="r_SN"    edges="S_to_C C_to_N"/>
    <route id="r_EW"    edges="E_to_C C_to_W"/>
    <route id="r_WE"    edges="W_to_C C_to_E"/>
    <route id="r_NW"    edges="N_to_C C_to_W"/>
    <route id="r_SE"    edges="S_to_C C_to_E"/>
</routes>
