<connections>
    <connection from="N_to_C" to="C_to_S" fromLane="0" toLane="0"/>
    <connection from="N_to_C" to="C_to_W" fromLane="1" toLane="1"/>
    <connection from="S_to_C" to="C_to_N" fromLane="0" toLane="0"/>
    <connection from="S_to_C" to="C_to_E" fromLane="1" toLane="1"/>
    <connection from="E_to_C" to="C_to_W" fromLane="0" toLane="0"/>
    <connection from="E_to_C" to="C_to_S" fromLane="1" toLane="1"/>
    <connection from="W_to_C" to="C_to_E" fromLane="0" toLane="0"/>
    <connection from="W_to_C" to="C_to_N" fromLane="1" toLane="1"/>
</connections>
