<?xml version="1.0" encoding="UTF-8"?>

<!-- generated on 2026-06-26T20:58:25.911597+05:30 by Eclipse SUMO netconvert 1.27.0
<netconvertConfiguration xmlns:xsi="http://www.w3.org/2001/XMLSchema-instance" xsi:noNamespaceSchemaLocation="http://sumo.dlr.de/xsd/netconvertConfiguration.xsd">

    <input>
        <node-files value="D:\RESEARCH INTERNSHIP NITT\SafeTCPF\sumo_files\net.nod.xml"/>
        <edge-files value="D:\RESEARCH INTERNSHIP NITT\SafeTCPF\sumo_files\net.edg.xml"/>
    </input>

    <output>
        <output-file value="D:\RESEARCH INTERNSHIP NITT\SafeTCPF\sumo_files\net.net.xml"/>
    </output>

    <pedestrian>
        <sidewalks.guess value="true"/>
        <crossings.guess value="true"/>
    </pedestrian>

</netconvertConfiguration>
-->

<net version="1.20" junctionCornerDetail="5" walkingareas="true" limitTurnSpeed="5.50" xmlns:xsi="http://www.w3.org/2001/XMLSchema-instance" xsi:noNamespaceSchemaLocation="http://sumo.dlr.de/xsd/net_file.xsd">

    <location netOffset="100.00,100.00" convBoundary="0.00,0.00,200.00,200.00" origBoundary="-100.00,-100.00,100.00,100.00" projParameter="!"/>

    <edge id=":center_0" function="internal">
        <lane id=":center_0_0" index="0" disallow="pedestrian" speed="6.51" length="4.75" shape="95.20,110.40 94.85,107.95 93.80,106.20 93.60,106.08"/>
    </edge>
    <edge id=":center_1" function="internal">
        <lane id=":center_1_0" index="0" disallow="pedestrian" speed="13.89" length="20.80" shape="95.20,110.40 95.20,89.60"/>
        <lane id=":center_1_1" index="1" disallow="pedestrian" speed="13.89" length="20.80" shape="98.40,110.40 98.40,89.60"/>
    </edge>
    <edge id=":center_3" function="internal">
        <lane id=":center_3_0" index="0" disallow="pedestrian" speed="9.26" length="5.01" shape="98.40,110.40 99.11,105.44"/>
    </edge>
    <edge id=":center_4" function="internal">
        <lane id=":center_4_0" index="0" disallow="pedestrian" speed="3.65" length="1.44" shape="98.40,110.40 99.20,109.20"/>
    </edge>
    <edge id=":center_20" function="internal">
        <lane id=":center_20_0" index="0" disallow="pedestrian" speed="6.51" length="4.28" shape="93.60,106.08 92.05,105.15 89.60,104.80"/>
    </edge>
    <edge id=":center_21" function="internal">
        <lane id=":center_21_0" index="0" disallow="pedestrian" speed="9.26" length="14.34" shape="99.11,105.44 99.15,105.15 101.40,101.40 105.15,99.15 110.40,98.40"/>
    </edge>
    <edge id=":center_22" function="internal">
        <lane id=":center_22_0" index="0" disallow="pedestrian" speed="3.65" length="3.23" shape="99.20,109.20 100.00,108.80 100.80,109.20 101.60,110.40"/>
    </edge>
    <edge id=":center_5" function="internal">
        <lane id=":center_5_0" index="0" disallow="pedestrian" speed="6.51" length="9.03" shape="110.40,104.80 107.95,105.15 106.20,106.20 105.15,107.95 104.80,110.40"/>
    </edge>
    <edge id=":center_6" function="internal">
        <lane id=":center_6_0" index="0" disallow="pedestrian" speed="13.89" length="20.80" shape="110.40,104.80 89.60,104.80"/>
        <lane id=":center_6_1" index="1" disallow="pedestrian" speed="13.89" length="20.80" shape="110.40,101.60 89.60,101.60"/>
    </edge>
    <edge id=":center_8" function="internal">
        <lane id=":center_8_0" index="0" disallow="pedestrian" speed="9.26" length="19.35" shape="110.40,101.60 105.15,100.85 101.40,98.60 99.15,94.85 98.40,89.60"/>
    </edge>
    <edge id=":center_9" function="internal">
        <lane id=":center_9_0" index="0" disallow="pedestrian" speed="3.65" length="4.67" shape="110.40,101.60 109.20,100.80 108.80,100.00 109.20,99.20 110.40,98.40"/>
    </edge>
    <edge id=":center_10" function="internal">
        <lane id=":center_10_0" index="0" disallow="pedestrian" speed="6.51" length="4.75" shape="104.80,89.60 105.15,92.05 106.20,93.80 106.40,93.92"/>
    </edge>
    <edge id=":center_11" function="internal">
        <lane id=":center_11_0" index="0" disallow="pedestrian" speed="13.89" length="20.80" shape="104.80,89.60 104.80,110.40"/>
        <lane id=":center_11_1" index="1" disallow="pedestrian" speed="13.89" length="20.80" shape="101.60,89.60 101.60,110.40"/>
    </edge>
    <edge id=":center_13" function="internal">
        <lane id=":center_13_0" index="0" disallow="pedestrian" speed="9.26" length="5.01" shape="101.60,89.60 100.89,94.56"/>
    </edge>
    <edge id=":center_14" function="internal">
        <lane id=":center_14_0" index="0" disallow="pedestrian" speed="3.65" length="1.44" shape="101.60,89.60 100.80,90.80"/>
    </edge>
    <edge id=":center_23" function="internal">
        <lane id=":center_23_0" index="0" disallow="pedestrian" speed="6.51" length="4.28" shape="106.40,93.92 107.95,94.85 110.40,95.20"/>
    </edge>
    <edge id=":center_24" function="internal">
        <lane id=":center_24_0" index="0" disallow="pedestrian" speed="9.26" length="14.34" shape="100.89,94.56 100.85,94.85 98.60,98.60 94.85,100.85 89.60,101.60"/>
    </edge>
    <edge id=":center_25" function="internal">
        <lane id=":center_25_0" index="0" disallow="pedestrian" speed="3.65" length="3.23" shape="100.80,90.80 100.00,91.20 99.20,90.80 98.40,89.60"/>
    </edge>
    <edge id=":center_15" function="internal">
        <lane id=":center_15_0" index="0" disallow="pedestrian" speed="6.51" length="9.03" shape="89.60,95.20 92.05,94.85 93.80,93.80 94.85,92.05 95.20,89.60"/>
    </edge>
    <edge id=":center_16" function="internal">
        <lane id=":center_16_0" index="0" disallow="pedestrian" speed="13.89" length="20.80" shape="89.60,95.20 110.40,95.20"/>
        <lane id=":center_16_1" index="1" disallow="pedestrian" speed="13.89" length="20.80" shape="89.60,98.40 110.40,98.40"/>
    </edge>
    <edge id=":center_18" function="internal">
        <lane id=":center_18_0" index="0" disallow="pedestrian" speed="9.26" length="19.35" shape="89.60,98.40 94.85,99.15 98.60,101.40 100.85,105.15 101.60,110.40"/>
    </edge>
    <edge id=":center_19" function="internal">
        <lane id=":center_19_0" index="0" disallow="pedestrian" speed="3.65" length="4.67" shape="89.60,98.40 90.80,99.20 91.20,100.00 90.80,100.80 89.60,101.60"/>
    </edge>
    <edge id=":center_c0" function="crossing" crossingEdges="C_to_N N_to_C">
        <lane id=":center_c0_0" index="0" allow="pedestrian" speed="2.78" length="12.80" width="4.00" shape="106.40,108.40 93.60,108.40" outlineShape="106.50,110.40 93.50,110.40 93.49,109.18 93.16,108.18 92.60,107.40 91.82,106.84 91.49,106.73 93.60,106.40 106.40,106.40 108.51,106.73 108.18,106.84 107.40,107.40 106.84,108.18 106.51,109.18"/>
    </edge>
    <edge id=":center_c1" function="crossing" crossingEdges="C_to_E E_to_C">
        <lane id=":center_c1_0" index="0" allow="pedestrian" speed="2.78" length="12.80" width="4.00" shape="108.40,93.60 108.40,106.40" outlineShape="110.40,93.50 110.40,106.50 109.18,106.51 108.18,106.84 107.40,107.40 106.84,108.18 106.73,108.51 106.40,106.40 106.40,93.60 106.73,91.49 106.84,91.82 107.40,92.60 108.18,93.16 109.18,93.49"/>
    </edge>
    <edge id=":center_c2" function="crossing" crossingEdges="C_to_S S_to_C">
        <lane id=":center_c2_0" index="0" allow="pedestrian" speed="2.78" length="12.80" width="4.00" shape="93.60,91.60 106.40,91.60" outlineShape="93.50,89.60 106.50,89.60 106.51,90.82 106.84,91.82 107.40,92.60 108.18,93.16 108.51,93.27 106.40,93.60 93.60,93.60 91.49,93.27 91.82,93.16 92.60,92.60 93.16,91.82 93.49,90.82"/>
    </edge>
    <edge id=":center_c3" function="crossing" crossingEdges="C_to_W W_to_C">
        <lane id=":center_c3_0" index="0" allow="pedestrian" speed="2.78" length="12.80" width="4.00" shape="91.60,106.40 91.60,93.60" outlineShape="89.60,106.50 89.60,93.50 90.82,93.49 91.82,93.16 92.60,92.60 93.16,91.82 93.27,91.49 93.60,93.60 93.60,106.40 93.27,108.51 93.16,108.18 92.60,107.40 91.82,106.84 90.82,106.51"/>
    </edge>
    <edge id=":center_w0" function="walkingarea">
        <lane id=":center_w0_0" index="0" allow="pedestrian" speed="2.78" length="3.30" width="4.00" shape="89.60,106.40 89.60,108.40 91.60,110.40 93.60,110.40 93.49,109.18 93.16,108.18 92.60,107.40 91.82,106.84 90.82,106.51"/>
    </edge>
    <edge id=":center_w1" function="walkingarea">
        <lane id=":center_w1_0" index="0" allow="pedestrian" speed="2.78" length="3.30" width="4.00" shape="106.40,110.40 108.40,110.40 110.40,108.40 110.40,106.40 109.18,106.51 108.18,106.84 107.40,107.40 106.84,108.18 106.51,109.18"/>
    </edge>
    <edge id=":center_w2" function="walkingarea">
        <lane id=":center_w2_0" index="0" allow="pedestrian" speed="2.78" length="3.30" width="4.00" shape="110.40,93.60 110.40,91.60 108.40,89.60 106.40,89.60 106.51,90.82 106.84,91.82 107.40,92.60 108.18,93.16 109.18,93.49"/>
    </edge>
    <edge id=":center_w3" function="walkingarea">
        <lane id=":center_w3_0" index="0" allow="pedestrian" speed="2.78" length="3.30" width="4.00" shape="93.60,89.60 91.60,89.60 89.60,91.60 89.60,93.60 90.82,93.49 91.82,93.16 92.60,92.60 93.16,91.82 93.49,90.82"/>
    </edge>
    <edge id=":east_0" function="internal">
        <lane id=":east_0_0" index="0" disallow="pedestrian" speed="3.65" length="4.67" shape="200.00,98.40 201.20,99.20 201.60,100.00 201.20,100.80 200.00,101.60"/>
    </edge>
    <edge id=":east_w0" function="walkingarea">
        <lane id=":east_w0_0" index="0" allow="pedestrian" speed="2.78" length="14.80" width="2.00" shape="200.00,106.40 200.00,108.40 200.00,91.60 200.00,93.60"/>
    </edge>
    <edge id=":north_0" function="internal">
        <lane id=":north_0_0" index="0" disallow="pedestrian" speed="3.65" length="4.67" shape="101.60,200.00 100.80,201.20 100.00,201.60 99.20,201.20 98.40,200.00"/>
    </edge>
    <edge id=":north_w0" function="walkingarea">
        <lane id=":north_w0_0" index="0" allow="pedestrian" speed="2.78" length="14.80" width="2.00" shape="93.60,200.00 91.60,200.00 108.40,200.00 106.40,200.00"/>
    </edge>
    <edge id=":south_0" function="internal">
        <lane id=":south_0_0" index="0" disallow="pedestrian" speed="3.65" length="4.67" shape="98.40,0.00 99.20,-1.20 100.00,-1.60 100.80,-1.20 101.60,0.00"/>
    </edge>
    <edge id=":south_w0" function="walkingarea">
        <lane id=":south_w0_0" index="0" allow="pedestrian" speed="2.78" length="14.80" width="2.00" shape="106.40,0.00 108.40,0.00 91.60,0.00 93.60,0.00"/>
    </edge>
    <edge id=":west_0" function="internal">
        <lane id=":west_0_0" index="0" disallow="pedestrian" speed="3.65" length="4.67" shape="0.00,101.60 -1.20,100.80 -1.60,100.00 -1.20,99.20 0.00,98.40"/>
    </edge>
    <edge id=":west_w0" function="walkingarea">
        <lane id=":west_w0_0" index="0" allow="pedestrian" speed="2.78" length="14.80" width="2.00" shape="0.00,93.60 0.00,91.60 0.00,108.40 0.00,106.40"/>
    </edge>

    <edge id="C_to_E" from="center" to="east" priority="-1">
        <lane id="C_to_E_0" index="0" allow="pedestrian" speed="13.89" length="89.60" width="2.00" shape="110.40,92.60 200.00,92.60"/>
        <lane id="C_to_E_1" index="1" disallow="pedestrian" speed="13.89" length="89.60" shape="110.40,95.20 200.00,95.20"/>
        <lane id="C_to_E_2" index="2" disallow="pedestrian" speed="13.89" length="89.60" shape="110.40,98.40 200.00,98.40"/>
    </edge>
    <edge id="C_to_N" from="center" to="north" priority="-1">
        <lane id="C_to_N_0" index="0" allow="pedestrian" speed="13.89" length="89.60" width="2.00" shape="107.40,110.40 107.40,200.00"/>
        <lane id="C_to_N_1" index="1" disallow="pedestrian" speed="13.89" length="89.60" shape="104.80,110.40 104.80,200.00"/>
        <lane id="C_to_N_2" index="2" disallow="pedestrian" speed="13.89" length="89.60" shape="101.60,110.40 101.60,200.00"/>
    </edge>
    <edge id="C_to_S" from="center" to="south" priority="-1">
        <lane id="C_to_S_0" index="0" allow="pedestrian" speed="13.89" length="89.60" width="2.00" shape="92.60,89.60 92.60,0.00"/>
        <lane id="C_to_S_1" index="1" disallow="pedestrian" speed="13.89" length="89.60" shape="95.20,89.60 95.20,0.00"/>
        <lane id="C_to_S_2" index="2" disallow="pedestrian" speed="13.89" length="89.60" shape="98.40,89.60 98.40,0.00"/>
    </edge>
    <edge id="C_to_W" from="center" to="west" priority="-1">
        <lane id="C_to_W_0" index="0" allow="pedestrian" speed="13.89" length="89.60" width="2.00" shape="89.60,107.40 0.00,107.40"/>
        <lane id="C_to_W_1" index="1" disallow="pedestrian" speed="13.89" length="89.60" shape="89.60,104.80 0.00,104.80"/>
        <lane id="C_to_W_2" index="2" disallow="pedestrian" speed="13.89" length="89.60" shape="89.60,101.60 0.00,101.60"/>
    </edge>
    <edge id="E_to_C" from="east" to="center" priority="-1">
        <lane id="E_to_C_0" index="0" allow="pedestrian" speed="13.89" length="89.60" width="2.00" shape="200.00,107.40 110.40,107.40"/>
        <lane id="E_to_C_1" index="1" disallow="pedestrian" speed="13.89" length="89.60" shape="200.00,104.80 110.40,104.80"/>
        <lane id="E_to_C_2" index="2" disallow="pedestrian" speed="13.89" length="89.60" shape="200.00,101.60 110.40,101.60"/>
    </edge>
    <edge id="N_to_C" from="north" to="center" priority="-1">
        <lane id="N_to_C_0" index="0" allow="pedestrian" speed="13.89" length="89.60" width="2.00" shape="92.60,200.00 92.60,110.40"/>
        <lane id="N_to_C_1" index="1" disallow="pedestrian" speed="13.89" length="89.60" shape="95.20,200.00 95.20,110.40"/>
        <lane id="N_to_C_2" index="2" disallow="pedestrian" speed="13.89" length="89.60" shape="98.40,200.00 98.40,110.40"/>
    </edge>
    <edge id="S_to_C" from="south" to="center" priority="-1">
        <lane id="S_to_C_0" index="0" allow="pedestrian" speed="13.89" length="89.60" width="2.00" shape="107.40,0.00 107.40,89.60"/>
        <lane id="S_to_C_1" index="1" disallow="pedestrian" speed="13.89" length="89.60" shape="104.80,0.00 104.80,89.60"/>
        <lane id="S_to_C_2" index="2" disallow="pedestrian" speed="13.89" length="89.60" shape="101.60,0.00 101.60,89.60"/>
    </edge>
    <edge id="W_to_C" from="west" to="center" priority="-1">
        <lane id="W_to_C_0" index="0" allow="pedestrian" speed="13.89" length="89.60" width="2.00" shape="0.00,92.60 89.60,92.60"/>
        <lane id="W_to_C_1" index="1" disallow="pedestrian" speed="13.89" length="89.60" shape="0.00,95.20 89.60,95.20"/>
        <lane id="W_to_C_2" index="2" disallow="pedestrian" speed="13.89" length="89.60" shape="0.00,98.40 89.60,98.40"/>
    </edge>

    <junction id="center" type="priority" x="100.00" y="100.00" incLanes="N_to_C_0 N_to_C_1 N_to_C_2 E_to_C_0 E_to_C_1 E_to_C_2 S_to_C_0 S_to_C_1 S_to_C_2 W_to_C_0 W_to_C_1 W_to_C_2 :center_w1_0 :center_w2_0 :center_w3_0 :center_w0_0" intLanes=":center_20_0 :center_1_0 :center_1_1 :center_21_0 :center_22_0 :center_5_0 :center_6_0 :center_6_1 :center_8_0 :center_9_0 :center_23_0 :center_11_0 :center_11_1 :center_24_0 :center_25_0 :center_15_0 :center_16_0 :center_16_1 :center_18_0 :center_19_0 :center_c0_0 :center_c1_0 :center_c2_0 :center_c3_0" shape="91.60,110.40 108.40,110.40 108.62,109.29 108.90,108.90 109.29,108.62 109.79,108.46 110.40,108.40 110.40,91.60 109.29,91.38 108.90,91.10 108.62,90.71 108.46,90.21 108.40,89.60 91.60,89.60 91.38,90.71 91.10,91.10 90.71,91.38 90.21,91.54 89.60,91.60 89.60,108.40 90.71,108.62 91.10,108.90 91.38,109.29 91.54,109.79">
        <request index="0"  response="100000000000000000000000" foes="100100000000000011000000" cont="1"/>
        <request index="1"  response="000000000000000000000000" foes="010101111110000111000000" cont="0"/>
        <request index="2"  response="000000000000000000000000" foes="010101111110000111000000" cont="0"/>
        <request index="3"  response="001000000001100000000000" foes="001101110001101111000000" cont="1"/>
        <request index="4"  response="000001000001100000000000" foes="000101000001100000000000" cont="1"/>
        <request index="5"  response="000100000001100000000000" foes="001100000001100000000000" cont="0"/>
        <request index="6"  response="000000000011100000001111" foes="101011000011100000001111" cont="0"/>
        <request index="7"  response="000000000011100000001111" foes="101011000011100000001111" cont="0"/>
        <request index="8"  response="010000110011100000001110" foes="011000110111100000001110" cont="0"/>
        <request index="9"  response="000000110000000000001000" foes="001000110000000000001000" cont="0"/>
        <request index="10" response="001000000000000000000000" foes="011000110000000000000000" cont="1"/>
        <request index="11" response="000000000000000000000000" foes="010101110000000111111000" cont="0"/>
        <request index="12" response="000000000000000000000000" foes="010101110000000111111000" cont="0"/>
        <request index="13" response="100000000000000000000110" foes="110011110000000111000110" cont="1"/>
        <request index="14" response="000000000000000100000110" foes="010000000000000100000110" cont="1"/>
        <request index="15" response="010000000000000000000110" foes="110000000000000000000110" cont="0"/>
        <request index="16" response="000000000011110000001110" foes="101000000011111100001110" cont="0"/>
        <request index="17" response="000000000011110000001110" foes="101000000011111100001110" cont="0"/>
        <request index="18" response="000100000011100011001110" foes="100100000011100011011110" cont="0"/>
        <request index="19" response="000000000010000011000000" foes="100000000010000011000000" cont="0"/>
        <request index="20" response="000000000001100000011111" foes="000001000001100000111111" cont="0"/>
        <request index="21" response="000000110000001111100000" foes="000000110000011111101000" cont="0"/>
        <request index="22" response="000000000111110000000110" foes="000000001111110100000110" cont="0"/>
        <request index="23" response="000011111000000011000000" foes="000011111010000011000001" cont="0"/>
    </junction>
    <junction id="east" type="priority" x="200.00" y="100.00" incLanes="C_to_E_0 C_to_E_1 C_to_E_2" intLanes=":east_0_0" shape="200.00,100.00 200.00,91.60 200.00,100.00">
        <request index="0" response="0" foes="0" cont="0"/>
    </junction>
    <junction id="north" type="priority" x="100.00" y="200.00" incLanes="C_to_N_0 C_to_N_1 C_to_N_2" intLanes=":north_0_0" shape="100.00,200.00 108.40,200.00 100.00,200.00">
        <request index="0" response="0" foes="0" cont="0"/>
    </junction>
    <junction id="south" type="priority" x="100.00" y="0.00" incLanes="C_to_S_0 C_to_S_1 C_to_S_2" intLanes=":south_0_0" shape="100.00,0.00 91.60,0.00 100.00,0.00">
        <request index="0" response="0" foes="0" cont="0"/>
    </junction>
    <junction id="west" type="priority" x="0.00" y="100.00" incLanes="C_to_W_0 C_to_W_1 C_to_W_2" intLanes=":west_0_0" shape="0.00,100.00 0.00,108.40 0.00,100.00">
        <request index="0" response="0" foes="0" cont="0"/>
    </junction>

    <junction id=":center_20_0" type="internal" x="93.60" y="106.08" incLanes=":center_0_0" intLanes=":center_6_0 :center_6_1 :center_13_0 :center_19_0 :center_c0_0 :center_c3_0"/>
    <junction id=":center_21_0" type="internal" x="99.11" y="105.44" incLanes=":center_3_0 S_to_C_1 S_to_C_2" intLanes=":center_6_0 :center_6_1 :center_8_0 :center_9_0 :center_10_0 :center_11_0 :center_11_1 :center_16_0 :center_16_1 :center_18_0 :center_c0_0 :center_c1_0"/>
    <junction id=":center_22_0" type="internal" x="99.20" y="109.20" incLanes=":center_4_0 E_to_C_1 S_to_C_1 S_to_C_2 W_to_C_2" intLanes=":center_5_0 :center_11_0 :center_11_1 :center_18_0 :center_c0_0 :center_c0_0"/>
    <junction id=":center_23_0" type="internal" x="106.40" y="93.92" incLanes=":center_10_0" intLanes=":center_3_0 :center_9_0 :center_16_0 :center_16_1 :center_c1_0 :center_c2_0"/>
    <junction id=":center_24_0" type="internal" x="100.89" y="94.56" incLanes=":center_13_0 N_to_C_1 N_to_C_2" intLanes=":center_0_0 :center_1_0 :center_1_1 :center_6_0 :center_6_1 :center_8_0 :center_16_0 :center_16_1 :center_18_0 :center_19_0 :center_c2_0 :center_c3_0"/>
    <junction id=":center_25_0" type="internal" x="100.80" y="90.80" incLanes=":center_14_0 E_to_C_2 N_to_C_1 N_to_C_2 W_to_C_1" intLanes=":center_1_0 :center_1_1 :center_8_0 :center_15_0 :center_c2_0 :center_c2_0"/>

    <connection from="C_to_E" to="E_to_C" fromLane="2" toLane="2" via=":east_0_0" dir="t" state="M"/>
    <connection from="C_to_N" to="N_to_C" fromLane="2" toLane="2" via=":north_0_0" dir="t" state="M"/>
    <connection from="C_to_S" to="S_to_C" fromLane="2" toLane="2" via=":south_0_0" dir="t" state="M"/>
    <connection from="C_to_W" to="W_to_C" fromLane="2" toLane="2" via=":west_0_0" dir="t" state="M"/>
    <connection from="E_to_C" to="C_to_N" fromLane="1" toLane="1" via=":center_5_0" dir="r" state="m"/>
    <connection from="E_to_C" to="C_to_W" fromLane="1" toLane="1" via=":center_6_0" dir="s" state="m"/>
    <connection from="E_to_C" to="C_to_W" fromLane="2" toLane="2" via=":center_6_1" dir="s" state="m"/>
    <connection from="E_to_C" to="C_to_S" fromLane="2" toLane="2" via=":center_8_0" dir="l" state="m"/>
    <connection from="E_to_C" to="C_to_E" fromLane="2" toLane="2" via=":center_9_0" dir="t" state="m"/>
    <connection from="N_to_C" to="C_to_W" fromLane="1" toLane="1" via=":center_0_0" dir="r" state="m"/>
    <connection from="N_to_C" to="C_to_S" fromLane="1" toLane="1" via=":center_1_0" dir="s" state="M"/>
    <connection from="N_to_C" to="C_to_S" fromLane="2" toLane="2" via=":center_1_1" dir="s" state="M"/>
    <connection from="N_to_C" to="C_to_E" fromLane="2" toLane="2" via=":center_3_0" dir="l" state="m"/>
    <connection from="N_to_C" to="C_to_N" fromLane="2" toLane="2" via=":center_4_0" dir="t" state="m"/>
    <connection from="S_to_C" to="C_to_E" fromLane="1" toLane="1" via=":center_10_0" dir="r" state="m"/>
    <connection from="S_to_C" to="C_to_N" fromLane="1" toLane="1" via=":center_11_0" dir="s" state="M"/>
    <connection from="S_to_C" to="C_to_N" fromLane="2" toLane="2" via=":center_11_1" dir="s" state="M"/>
    <connection from="S_to_C" to="C_to_W" fromLane="2" toLane="2" via=":center_13_0" dir="l" state="m"/>
    <connection from="S_to_C" to="C_to_S" fromLane="2" toLane="2" via=":center_14_0" dir="t" state="m"/>
    <connection from="W_to_C" to="C_to_S" fromLane="1" toLane="1" via=":center_15_0" dir="r" state="m"/>
    <connection from="W_to_C" to="C_to_E" fromLane="1" toLane="1" via=":center_16_0" dir="s" state="m"/>
    <connection from="W_to_C" to="C_to_E" fromLane="2" toLane="2" via=":center_16_1" dir="s" state="m"/>
    <connection from="W_to_C" to="C_to_N" fromLane="2" toLane="2" via=":center_18_0" dir="l" state="m"/>
    <connection from="W_to_C" to="C_to_W" fromLane="2" toLane="2" via=":center_19_0" dir="t" state="m"/>

    <connection from=":center_0" to="C_to_W" fromLane="0" toLane="1" via=":center_20_0" dir="r" state="m"/>
    <connection from=":center_20" to="C_to_W" fromLane="0" toLane="1" dir="r" state="m"/>
    <connection from=":center_1" to="C_to_S" fromLane="0" toLane="1" dir="s" state="M"/>
    <connection from=":center_1" to="C_to_S" fromLane="1" toLane="2" dir="s" state="M"/>
    <connection from=":center_3" to="C_to_E" fromLane="0" toLane="2" via=":center_21_0" dir="l" state="m"/>
    <connection from=":center_21" to="C_to_E" fromLane="0" toLane="2" dir="l" state="m"/>
    <connection from=":center_4" to="C_to_N" fromLane="0" toLane="2" via=":center_22_0" dir="t" state="m"/>
    <connection from=":center_22" to="C_to_N" fromLane="0" toLane="2" dir="t" state="m"/>
    <connection from=":center_5" to="C_to_N" fromLane="0" toLane="1" dir="r" state="M"/>
    <connection from=":center_6" to="C_to_W" fromLane="0" toLane="1" dir="s" state="M"/>
    <connection from=":center_6" to="C_to_W" fromLane="1" toLane="2" dir="s" state="M"/>
    <connection from=":center_8" to="C_to_S" fromLane="0" toLane="2" dir="l" state="M"/>
    <connection from=":center_9" to="C_to_E" fromLane="0" toLane="2" dir="t" state="M"/>
    <connection from=":center_10" to="C_to_E" fromLane="0" toLane="1" via=":center_23_0" dir="r" state="m"/>
    <connection from=":center_23" to="C_to_E" fromLane="0" toLane="1" dir="r" state="m"/>
    <connection from=":center_11" to="C_to_N" fromLane="0" toLane="1" dir="s" state="M"/>
    <connection from=":center_11" to="C_to_N" fromLane="1" toLane="2" dir="s" state="M"/>
    <connection from=":center_13" to="C_to_W" fromLane="0" toLane="2" via=":center_24_0" dir="l" state="m"/>
    <connection from=":center_24" to="C_to_W" fromLane="0" toLane="2" dir="l" state="m"/>
    <connection from=":center_14" to="C_to_S" fromLane="0" toLane="2" via=":center_25_0" dir="t" state="m"/>
    <connection from=":center_25" to="C_to_S" fromLane="0" toLane="2" dir="t" state="m"/>
    <connection from=":center_15" to="C_to_S" fromLane="0" toLane="1" dir="r" state="M"/>
    <connection from=":center_16" to="C_to_E" fromLane="0" toLane="1" dir="s" state="M"/>
    <connection from=":center_16" to="C_to_E" fromLane="1" toLane="2" dir="s" state="M"/>
    <connection from=":center_18" to="C_to_N" fromLane="0" toLane="2" dir="l" state="M"/>
    <connection from=":center_19" to="C_to_W" fromLane="0" toLane="2" dir="t" state="M"/>
    <connection from=":east_0" to="E_to_C" fromLane="0" toLane="2" dir="t" state="M"/>
    <connection from=":north_0" to="N_to_C" fromLane="0" toLane="2" dir="t" state="M"/>
    <connection from=":south_0" to="S_to_C" fromLane="0" toLane="2" dir="t" state="M"/>
    <connection from=":west_0" to="W_to_C" fromLane="0" toLane="2" dir="t" state="M"/>

    <connection from=":center_c0" to=":center_w0" fromLane="0" toLane="0" dir="s" state="M"/>
    <connection from=":center_c1" to=":center_w1" fromLane="0" toLane="0" dir="s" state="M"/>
    <connection from=":center_c2" to=":center_w2" fromLane="0" toLane="0" dir="s" state="M"/>
    <connection from=":center_c3" to=":center_w3" fromLane="0" toLane="0" dir="s" state="M"/>
    <connection from=":center_w0" to=":center_c3" fromLane="0" toLane="0" dir="s" state="m"/>
    <connection from=":center_w0" to="C_to_W" fromLane="0" toLane="0" dir="s" state="M"/>
    <connection from="N_to_C" to=":center_w0" fromLane="0" toLane="0" dir="s" state="M"/>
    <connection from=":center_w1" to=":center_c0" fromLane="0" toLane="0" dir="s" state="m"/>
    <connection from=":center_w1" to="C_to_N" fromLane="0" toLane="0" dir="s" state="M"/>
    <connection from="E_to_C" to=":center_w1" fromLane="0" toLane="0" dir="s" state="M"/>
    <connection from=":center_w2" to=":center_c1" fromLane="0" toLane="0" dir="s" state="m"/>
    <connection from=":center_w2" to="C_to_E" fromLane="0" toLane="0" dir="s" state="M"/>
    <connection from="S_to_C" to=":center_w2" fromLane="0" toLane="0" dir="s" state="M"/>
    <connection from=":center_w3" to=":center_c2" fromLane="0" toLane="0" dir="s" state="m"/>
    <connection from=":center_w3" to="C_to_S" fromLane="0" toLane="0" dir="s" state="M"/>
    <connection from="W_to_C" to=":center_w3" fromLane="0" toLane="0" dir="s" state="M"/>
    <connection from=":east_w0" to="E_to_C" fromLane="0" toLane="0" dir="s" state="M"/>
    <connection from="C_to_E" to=":east_w0" fromLane="0" toLane="0" dir="s" state="M"/>
    <connection from=":north_w0" to="N_to_C" fromLane="0" toLane="0" dir="s" state="M"/>
    <connection from="C_to_N" to=":north_w0" fromLane="0" toLane="0" dir="s" state="M"/>
    <connection from=":south_w0" to="S_to_C" fromLane="0" toLane="0" dir="s" state="M"/>
    <connection from="C_to_S" to=":south_w0" fromLane="0" toLane="0" dir="s" state="M"/>
    <connection from=":west_w0" to="W_to_C" fromLane="0" toLane="0" dir="s" state="M"/>
    <connection from="C_to_W" to=":west_w0" fromLane="0" toLane="0" dir="s" state="M"/>
</net>
