<routes>
    <vType id="car" vClass="passenger" length="5.0" width="2.0" maxSpeed="13.89" accel="2.6" decel="4.5" sigma="0.5"/>
    <vType id="motorcycle" vClass="motorcycle" length="2.0" width="0.8" maxSpeed="16.67" accel="4.0" decel="6.0" sigma="0.7"/>
    <vType id="autorickshaw" vClass="taxi" length="3.2" width="1.4" maxSpeed="10.0" accel="1.5" decel="3.5" sigma="0.6"/>
    <vType id="bus" vClass="bus" length="12.0" width="2.5" maxSpeed="11.11" accel="1.2" decel="2.5" sigma="0.4"/>
    <vType id="bicycle" vClass="bicycle" length="1.6" width="0.6" maxSpeed="5.56" accel="1.0" decel="2.0" sigma="0.8"/>
    <vType id="ped" vClass="pedestrian" length="0.4" width="0.5" maxSpeed="1.5"/>

    <!-- Named routes -->
    <route id="r_dummy" edges="N_to_C C_to_S"/>
    <route id="r_NS"    edges="N_to_C C_to_S"/>
    <route id="r_SN"    edges="S_to_C C_to_N"/>
    <route id="r_EW"    edges="E_to_C C_to_W"/>
    <route id="r_WE"    edges="W_to_C C_to_E"/>
    <route id="r_NW"    edges="N_to_C C_to_W"/>
    <route id="r_SE"    edges="S_to_C C_to_E"/>

    <!-- Config-driven mixed vehicles continuously spawned as flows (reproducible seed=42) -->
    <flow id="flow_car_r_NS" type="car" route="r_NS" begin="0" end="1000" probability="0.013333" departLane="best" departSpeed="max"/>
    <flow id="flow_motorcycle_r_NS" type="motorcycle" route="r_NS" begin="0" end="1000" probability="0.011667" departLane="best" departSpeed="max"/>
    <flow id="flow_autorickshaw_r_NS" type="autorickshaw" route="r_NS" begin="0" end="1000" probability="0.003333" departLane="best" departSpeed="max"/>
    <flow id="flow_bus_r_NS" type="bus" route="r_NS" begin="0" end="1000" probability="0.001667" departLane="best" departSpeed="max"/>
    <flow id="flow_bicycle_r_NS" type="bicycle" route="r_NS" begin="0" end="1000" probability="0.003333" departLane="best" departSpeed="max"/>
    <flow id="flow_car_r_SN" type="car" route="r_SN" begin="0" end="1000" probability="0.013333" departLane="best" departSpeed="max"/>
    <flow id="flow_motorcycle_r_SN" type="motorcycle" route="r_SN" begin="0" end="1000" probability="0.011667" departLane="best" departSpeed="max"/>
    <flow id="flow_autorickshaw_r_SN" type="autorickshaw" route="r_SN" begin="0" end="1000" probability="0.003333" departLane="best" departSpeed="max"/>
    <flow id="flow_bus_r_SN" type="bus" route="r_SN" begin="0" end="1000" probability="0.001667" departLane="best" departSpeed="max"/>
    <flow id="flow_bicycle_r_SN" type="bicycle" route="r_SN" begin="0" end="1000" probability="0.003333" departLane="best" departSpeed="max"/>
    <flow id="flow_car_r_EW" type="car" route="r_EW" begin="0" end="1000" probability="0.013333" departLane="best" departSpeed="max"/>
    <flow id="flow_motorcycle_r_EW" type="motorcycle" route="r_EW" begin="0" end="1000" probability="0.011667" departLane="best" departSpeed="max"/>
    <flow id="flow_autorickshaw_r_EW" type="autorickshaw" route="r_EW" begin="0" end="1000" probability="0.003333" departLane="best" departSpeed="max"/>
    <flow id="flow_bus_r_EW" type="bus" route="r_EW" begin="0" end="1000" probability="0.001667" departLane="best" departSpeed="max"/>
    <flow id="flow_bicycle_r_EW" type="bicycle" route="r_EW" begin="0" end="1000" probability="0.003333" departLane="best" departSpeed="max"/>
    <flow id="flow_car_r_WE" type="car" route="r_WE" begin="0" end="1000" probability="0.013333" departLane="best" departSpeed="max"/>
    <flow id="flow_motorcycle_r_WE" type="motorcycle" route="r_WE" begin="0" end="1000" probability="0.011667" departLane="best" departSpeed="max"/>
    <flow id="flow_autorickshaw_r_WE" type="autorickshaw" route="r_WE" begin="0" end="1000" probability="0.003333" departLane="best" departSpeed="max"/>
    <flow id="flow_bus_r_WE" type="bus" route="r_WE" begin="0" end="1000" probability="0.001667" departLane="best" departSpeed="max"/>
    <flow id="flow_bicycle_r_WE" type="bicycle" route="r_WE" begin="0" end="1000" probability="0.003333" departLane="best" departSpeed="max"/>
    <flow id="flow_car_r_NW" type="car" route="r_NW" begin="0" end="1000" probability="0.013333" departLane="best" departSpeed="max"/>
    <flow id="flow_motorcycle_r_NW" type="motorcycle" route="r_NW" begin="0" end="1000" probability="0.011667" departLane="best" departSpeed="max"/>
    <flow id="flow_autorickshaw_r_NW" type="autorickshaw" route="r_NW" begin="0" end="1000" probability="0.003333" departLane="best" departSpeed="max"/>
    <flow id="flow_bus_r_NW" type="bus" route="r_NW" begin="0" end="1000" probability="0.001667" departLane="best" departSpeed="max"/>
    <flow id="flow_bicycle_r_NW" type="bicycle" route="r_NW" begin="0" end="1000" probability="0.003333" departLane="best" departSpeed="max"/>
    <flow id="flow_car_r_SE" type="car" route="r_SE" begin="0" end="1000" probability="0.013333" departLane="best" departSpeed="max"/>
    <flow id="flow_motorcycle_r_SE" type="motorcycle" route="r_SE" begin="0" end="1000" probability="0.011667" departLane="best" departSpeed="max"/>
    <flow id="flow_autorickshaw_r_SE" type="autorickshaw" route="r_SE" begin="0" end="1000" probability="0.003333" departLane="best" departSpeed="max"/>
    <flow id="flow_bus_r_SE" type="bus" route="r_SE" begin="0" end="1000" probability="0.001667" departLane="best" departSpeed="max"/>
    <flow id="flow_bicycle_r_SE" type="bicycle" route="r_SE" begin="0" end="1000" probability="0.003333" departLane="best" departSpeed="max"/>
</routes>
