<routes>
    <vType id="car" vClass="passenger" length="5.0" width="2.0" maxSpeed="13.89" accel="2.6" decel="4.5" sigma="0.5"/>
    <vType id="ped" vClass="pedestrian" length="0.4" width="0.5" maxSpeed="1.5"/>

    <!-- Named routes -->
    <route id="r_dummy" edges="N_to_C C_to_S"/>
    <route id="r_NS"    edges="N_to_C C_to_S"/>
    <route id="r_SN"    edges="S_to_C C_to_N"/>
    <route id="r_EW"    edges="E_to_C C_to_W"/>
    <route id="r_WE"    edges="W_to_C C_to_E"/>
    <route id="r_NW"    edges="N_to_C C_to_W"/>
    <route id="r_SE"    edges="S_to_C C_to_E"/>

    <!-- Concrete vehicles for standalone demo (sorted by depart time) -->
    <vehicle id="veh_ns0" type="car" route="r_NS" depart="0.0"/>
    <vehicle id="veh_sn0" type="car" route="r_SN" depart="0.0"/>
    <vehicle id="veh_ew0" type="car" route="r_EW" depart="2.0"/>
    <vehicle id="veh_we0" type="car" route="r_WE" depart="2.0"/>
    <vehicle id="veh_nw0" type="car" route="r_NW" depart="5.0"/>
    <vehicle id="veh_se0" type="car" route="r_SE" depart="5.0"/>
    <vehicle id="veh_ns1" type="car" route="r_NS" depart="10.0"/>
    <vehicle id="veh_sn1" type="car" route="r_SN" depart="10.0"/>
    <vehicle id="veh_ew1" type="car" route="r_EW" depart="12.0"/>
    <vehicle id="veh_we1" type="car" route="r_WE" depart="12.0"/>
    <vehicle id="veh_nw1" type="car" route="r_NW" depart="15.0"/>
    <vehicle id="veh_se1" type="car" route="r_SE" depart="15.0"/>
    <vehicle id="veh_ns2" type="car" route="r_NS" depart="20.0"/>
    <vehicle id="veh_sn2" type="car" route="r_SN" depart="20.0"/>
    <vehicle id="veh_ew2" type="car" route="r_EW" depart="22.0"/>
    <vehicle id="veh_we2" type="car" route="r_WE" depart="22.0"/>
</routes>
